Version 4
SHEET 1 1700 680
WIRE 736 -96 384 -96
WIRE 1568 -48 1488 -48
WIRE 384 -32 384 -96
WIRE 384 -32 304 -32
WIRE 1568 -32 1568 -48
WIRE 384 -16 384 -32
WIRE 1488 -16 1488 -48
WIRE 1488 -16 1408 -16
WIRE 304 0 304 -32
WIRE 304 0 224 0
WIRE 736 16 736 -96
WIRE 736 16 656 16
WIRE 1488 32 1488 -16
WIRE 1488 32 1408 32
WIRE 304 48 304 0
WIRE 304 48 224 48
WIRE 736 64 736 16
WIRE 736 64 656 64
WIRE 1360 64 1344 64
WIRE 1568 64 1568 48
WIRE 176 80 160 80
WIRE 384 80 384 64
WIRE 608 96 592 96
WIRE 1280 128 1200 128
WIRE 1344 128 1344 64
WIRE 1344 128 1280 128
WIRE 1408 128 1408 80
WIRE 1472 128 1408 128
WIRE 1536 128 1472 128
WIRE 96 144 16 144
WIRE 160 144 160 80
WIRE 160 144 96 144
WIRE 224 144 224 96
WIRE 288 144 224 144
WIRE 320 144 288 144
WIRE 320 160 320 144
WIRE 592 160 592 96
WIRE 592 160 320 160
WIRE 656 160 656 112
WIRE 752 160 656 160
WIRE 1408 176 1408 128
WIRE 224 192 224 144
WIRE 656 208 656 160
WIRE 1536 208 1536 192
WIRE 1488 224 1408 224
WIRE 304 240 224 240
WIRE 1200 240 1200 208
WIRE 1216 240 1200 240
WIRE 16 256 16 224
WIRE 32 256 16 256
WIRE 736 256 656 256
WIRE 1216 256 1216 240
WIRE 1344 256 1344 128
WIRE 1360 256 1344 256
WIRE 32 272 32 256
WIRE 160 272 160 144
WIRE 176 272 160 272
WIRE 1456 272 1408 272
WIRE 1488 272 1488 224
WIRE 1488 272 1456 272
WIRE 272 288 224 288
WIRE 304 288 304 240
WIRE 304 288 272 288
WIRE 592 288 592 160
WIRE 608 288 592 288
WIRE 1456 288 1456 272
WIRE 272 304 272 288
WIRE 704 304 656 304
WIRE 736 304 736 256
WIRE 736 304 704 304
WIRE 704 320 704 304
FLAG 272 304 0
FLAG 384 80 0
FLAG 32 272 0
FLAG 288 144 Out
FLAG 96 144 In
FLAG 704 320 0
FLAG 1456 288 0
FLAG 1568 64 0
FLAG 1216 256 0
FLAG 1472 128 Out1
FLAG 1280 128 In1
FLAG 1536 208 0
SYMBOL nmos4 176 192 R0
WINDOW 3 139 70 Left 2
WINDOW 123 141 97 Left 2
SYMATTR Value EECMOSN
SYMATTR Value2 l=0.1u w=0.12u
SYMATTR InstName M1
SYMBOL pmos4 176 0 R0
WINDOW 3 -73 -53 Left 2
WINDOW 123 -73 -25 Left 2
SYMATTR Value EECMOSP
SYMATTR Value2 l=0.1u w=0.21u
SYMATTR InstName M2
SYMBOL voltage 16 128 R0
WINDOW 3 -76 207 Left 2
WINDOW 123 0 0 Left 0
WINDOW 39 0 0 Left 0
SYMATTR Value PULSE(0 1 5n 10p 10p 5n 10n)
SYMATTR InstName V_sig_in
SYMBOL voltage 384 -32 R0
WINDOW 123 0 0 Left 0
WINDOW 39 0 0 Left 0
SYMATTR InstName Vsupply
SYMATTR Value 1
SYMBOL nmos4 608 208 R0
WINDOW 3 139 70 Left 2
WINDOW 123 141 97 Left 2
SYMATTR Value EECMOSN
SYMATTR Value2 l=0.1u w={5*0.12u}
SYMATTR InstName M3
SYMBOL pmos4 608 16 R0
WINDOW 3 -73 -53 Left 2
WINDOW 123 -73 -25 Left 2
SYMATTR Value EECMOSP
SYMATTR Value2 l=0.1u w={5*0.21u}
SYMATTR InstName M4
SYMBOL nmos4 1360 176 R0
WINDOW 3 139 70 Left 2
WINDOW 123 141 97 Left 2
SYMATTR Value EECMOSN
SYMATTR Value2 l=0.1u w=0.12u
SYMATTR InstName M5
SYMBOL pmos4 1360 -16 R0
WINDOW 3 -73 -53 Left 2
WINDOW 123 -73 -25 Left 2
SYMATTR Value EECMOSP
SYMATTR Value2 l=0.1u w=0.21u
SYMATTR InstName M6
SYMBOL voltage 1200 112 R0
WINDOW 3 -76 207 Left 2
WINDOW 123 0 0 Left 0
WINDOW 39 0 0 Left 0
WINDOW 0 -104 -10 Left 2
SYMATTR Value PULSE(0 1 5n 10p 10p 5n 10n)
SYMATTR InstName V_sig_in1
SYMBOL voltage 1568 -48 R0
WINDOW 123 0 0 Left 0
WINDOW 39 0 0 Left 0
SYMATTR InstName Vx
SYMATTR Value 1
SYMBOL cap 1520 128 R0
SYMATTR InstName C1
SYMATTR Value {CL}
TEXT -56 392 Left 2 !.inc C:\\Users\\andry\\OneDrive\\Desktop\\Low_Power\\Materiale_Corso\\RIT_Models_For_LTSPICE.txt
TEXT -48 440 Left 2 !.tran 0 50n
TEXT -48 480 Left 2 ;.step param wp 0.12u 0.36u 0.01u
TEXT 1320 392 Left 2 !.step param CL 10f 50f 10f
